! BP86 def2-SVP Grid5 Finalgrid6 tightscf
! CHELPG
%scf maxiter 200 end

*xyz -2 1
Fe 3.88495261 -2.626815290926829 -9.289427641451223 
O 2.343749408 -4.312371143926829 -7.486582851951224 
N 1.9007149700000001 -0.30572667292683064 -9.814726816951223 
C 2.6355067199999995 -1.1747408789268299 -9.624726146951224 
C 2.93782104 -3.617359946926829 -8.216250816951224 
C 3.5292534200000008 -3.682986389926829 -10.645207756951223 
H 4.744029135999999 0.48593697607316955 -7.804461601951223 
O 3.316073837999997 -4.41931793992683 -11.515468951951226 
Fe 6.251161994 -3.2278905989268303 -8.710288887951224 
S 5.69523955 -1.853452697926829 -10.455025441951225 
S 4.964166746 -1.8408707219268292 -7.443714631951224 
O 5.868590419999999 -5.28475772092683 -6.708778961951225 
N 6.39164218 0.22042868707316998 -8.734120711951224 
H 6.8919004 -0.12414588292682893 -8.563011121951224 
N 9.079360443999999 -2.2447807469268293 -7.944146606951223 
C 5.98855642 -0.06681210592683051 -10.037423586951224 
C 5.5110917399999995 -0.06981462292683105 -7.648246901951223 
C 8.0255791 -2.60794232692683 -8.234778606951224 
C 6.030544519999999 -4.45205967292683 -7.4865828519512245 
C 6.6459700999999995 -4.43461647892683 -9.904641091951225 
H 5.95976458 0.22071464107316885 -6.850825351951224 
H 5.213576059999999 0.44833402507316933 -10.273198796951224 
H 6.748421064 0.2557440060731704 -10.527501796951224 
O 6.863948321999998 -5.240863781926831 -10.698066451951226 
*
