5
Energy: -460.96032351434263
H        0.000000     0.000000     0.000000
Cl       0.000000     0.000000     1.500000
O        2.172093    -1.008295     2.571252
H        1.454072    -0.674987     2.018793
H        2.237951    -1.940937     2.331040
5
Energy: -460.96032351434263
H        0.004924    -0.001150     0.483460
Cl      -0.530609     0.241796     0.765981
O        2.240801    -1.671921     2.280226
H        1.897275    -0.802152     2.366181
H        2.251725    -1.390793     2.525236
5
Energy: -459.9688054302566
H        0.004924    -0.001150     0.483460
Cl      -0.530609     0.241796     0.765981
O        2.240801    -1.671921     2.280226
H        1.897275    -0.802152     2.366181
H        2.251725    -1.390793     2.525236
5
Energy: -459.9688054302566
H        0.081589    -0.028376     3.837639
Cl      -4.279835     1.950241    -4.338695
O        2.720741    -6.308238     0.246925
H        4.993647    -1.690560     4.793226
H        2.347975     2.452715     3.881989
