! BP86 MINIX Grid4 Finalgrid5 D3BJ tightscf
! Engrad
%pointcharges "orca-input.pc"
%scf maxiter 200 end

*xyz 0 1
C -0.4633748280136799 0.1353427634535475 -6.063257455182704 
H -0.2633756657826193 -0.6377604801914829 -6.8082513547014685 
H -1.5155534688491719 0.4382434979749837 -6.143442847089099 
H 0.17883770462224652 1.0021948188325276 -6.268052712939846 
O -0.17491163748852795 -0.5005958882955631 -4.737618055963015 
H -0.31001557987880013 0.23180935380254084 -4.02710935569443 
*
