5
Coordinates from ORCA-job ORCA-opt E -537.071070916489
  H       0.777036     -0.260936      0.608691
  Cl     -0.508936     -0.048136      0.674350
  O       2.076574     -0.866648      1.942365
  H       1.188501     -0.704159      2.318646
  H       2.330940     -1.744340      2.277033
5
Coordinates from ORCA-job ORCA-opt E -537.071796786117
  H       0.744754     -0.293007      0.579862
  Cl     -0.533869      0.011129      0.642203
  O       2.084567     -0.863399      1.961691
  H       1.195271     -0.741951      2.353440
  H       2.373392     -1.736991      2.283888
5
Coordinates from ORCA-job ORCA-opt E -537.072282565415
  H       0.727059     -0.309464      0.575002
  Cl     -0.546124      0.036137      0.608115
  O       2.083548     -0.859524      1.969231
  H       1.211361     -0.754824      2.398530
  H       2.388271     -1.736543      2.270207
5
Coordinates from ORCA-job ORCA-opt E -537.073314512508
  H       0.709172     -0.330476      0.595614
  Cl     -0.556089      0.052357      0.535255
  O       2.069080     -0.849321      1.973504
  H       1.253341     -0.755789      2.501879
  H       2.388610     -1.740991      2.214833
5
Coordinates from ORCA-job ORCA-opt E -537.074520083618
  H       0.706858     -0.346473      0.644087
  Cl     -0.545827      0.042790      0.467331
  O       2.041250     -0.834062      1.970334
  H       1.300407     -0.743923      2.601313
  H       2.361427     -1.742551      2.138021
5
Coordinates from ORCA-job ORCA-opt E -537.075681299840
  H       0.712372     -0.360321      0.709263
  Cl     -0.518621      0.018274      0.409260
  O       2.006365     -0.815101      1.964513
  H       1.348726     -0.729518      2.684539
  H       2.315273     -1.737554      2.053509
5
Coordinates from ORCA-job ORCA-opt E -537.076524191446
  H       0.715728     -0.370592      0.780405
  Cl     -0.485515     -0.012113      0.351136
  O       1.970346     -0.794920      1.962321
  H       1.404835     -0.718903      2.758717
  H       2.258720     -1.727691      1.968505
5
Coordinates from ORCA-job ORCA-opt E -537.076953814327
  H       0.707574     -0.372893      0.848842
  Cl     -0.453732     -0.044362      0.284511
  O       1.938210     -0.775910      1.968291
  H       1.475721     -0.717059      2.830176
  H       2.196342     -1.713994      1.889265
5
Coordinates from ORCA-job ORCA-opt E -537.077151963960
  H       0.692485     -0.363824      0.871491
  Cl     -0.448772     -0.056215      0.247812
  O       1.934599     -0.770402      1.976717
  H       1.512233     -0.723401      2.857307
  H       2.173570     -1.710376      1.867757
5
Coordinates from ORCA-job ORCA-opt E -537.077372780797
  H       0.661171     -0.352611      0.897563
  Cl     -0.444313     -0.064297      0.201846
  O       1.940926     -0.763946      1.986666
  H       1.552843     -0.735795      2.879532
  H       2.153489     -1.707570      1.855477
5
Coordinates from ORCA-job ORCA-opt E -537.077433463016
  H       0.644769     -0.349738      0.905425
  Cl     -0.443039     -0.064149      0.185666
  O       1.948037     -0.762305      1.989953
  H       1.563841     -0.739606      2.885861
  H       2.150507     -1.708422      1.854180
5
Coordinates from ORCA-job ORCA-opt E -537.077459686861
  H       0.637372     -0.347888      0.908886
  Cl     -0.442123     -0.063957      0.182092
  O       1.955288     -0.762413      1.990452
  H       1.562279     -0.739711      2.884318
  H       2.151300     -1.710250      1.855337
5
Coordinates from ORCA-job ORCA-opt E -537.077471126425
  H       0.636997     -0.345995      0.910658
  Cl     -0.441370     -0.065638      0.183260
  O       1.959293     -0.762768      1.990892
  H       1.558437     -0.738409      2.881802
  H       2.150758     -1.711409      1.854473
5
Coordinates from ORCA-job ORCA-opt E -537.077489043806
  H       0.641266     -0.340785      0.914281
  Cl     -0.439743     -0.071627      0.188335
  O       1.965921     -0.763101      1.991617
  H       1.549483     -0.735678      2.875496
  H       2.147187     -1.713027      1.851356
5
Coordinates from ORCA-job ORCA-opt E -537.077507016066
  H       0.648759     -0.332785      0.920223
  Cl     -0.436778     -0.082031      0.193281
  O       1.971747     -0.762301      1.992811
  H       1.542065     -0.733519      2.870098
  H       2.138322     -1.713583      1.844673
5
Coordinates from ORCA-job ORCA-opt E -537.077523650994
  H       0.655885     -0.323597      0.928739
  Cl     -0.431897     -0.095458      0.194188
  O       1.975215     -0.759737      1.994546
  H       1.541339     -0.733400      2.869375
  H       2.123573     -1.712026      1.834238
5
Coordinates from ORCA-job ORCA-opt E -537.077534944158
  H       0.658802     -0.317368      0.933914
  Cl     -0.428539     -0.104851      0.190715
  O       1.975453     -0.756838      1.996362
  H       1.547541     -0.735708      2.874014
  H       2.110858     -1.709455      1.826080
5
Coordinates from ORCA-job ORCA-opt E -537.077541703609
  H       0.659352     -0.312508      0.934784
  Cl     -0.427584     -0.110476      0.186840
  O       1.975056     -0.754793      1.997866
  H       1.554515     -0.738837      2.879667
  H       2.102775     -1.707606      1.821927
5
Coordinates from ORCA-job ORCA-opt E -537.077544270079
  H       0.658579     -0.310748      0.933723
  Cl     -0.427230     -0.112519      0.184323
  O       1.974148     -0.753605      1.999067
  H       1.559719     -0.740999      2.883854
  H       2.098899     -1.706348      1.820117
5
Coordinates from ORCA-job ORCA-opt E -537.077545158810
  H       0.658140     -0.308236      0.933010
  Cl     -0.427316     -0.114397      0.183491
  O       1.975186     -0.753495      1.999876
  H       1.561058     -0.741776      2.885503
  H       2.097046     -1.706316      1.819205
5
Coordinates from ORCA-job ORCA-opt E -537.077545568813
  H       0.657554     -0.308994      0.932364
  Cl     -0.427179     -0.113946      0.183216
  O       1.974936     -0.753371      2.000382
  H       1.561938     -0.741911      2.886198
  H       2.096865     -1.705997      1.818925
5
Coordinates from ORCA-job ORCA-opt E -537.077545839841
  H       0.657654     -0.309208      0.932370
  Cl     -0.427167     -0.113826      0.183624
  O       1.975355     -0.753469      2.000454
  H       1.561229     -0.741642      2.885716
  H       2.097045     -1.706074      1.818921
